* NGSPICE file created from lifo.ext - technology: sky130A

* Black-box entry subcircuit for sky130_fd_sc_hd__tapvpwrvgnd_1 abstract view
.subckt sky130_fd_sc_hd__tapvpwrvgnd_1 VGND VPWR
.ends

* Black-box entry subcircuit for sky130_fd_sc_hd__fill_1 abstract view
.subckt sky130_fd_sc_hd__fill_1 VGND VNB VPB VPWR
.ends

* Black-box entry subcircuit for sky130_ef_sc_hd__decap_12 abstract view
.subckt sky130_ef_sc_hd__decap_12 VPWR VGND VPB VNB
.ends

* Black-box entry subcircuit for sky130_fd_sc_hd__decap_6 abstract view
.subckt sky130_fd_sc_hd__decap_6 VGND VNB VPB VPWR
.ends

* Black-box entry subcircuit for sky130_fd_sc_hd__decap_4 abstract view
.subckt sky130_fd_sc_hd__decap_4 VGND VNB VPB VPWR
.ends

* Black-box entry subcircuit for sky130_fd_sc_hd__fill_2 abstract view
.subckt sky130_fd_sc_hd__fill_2 VGND VNB VPB VPWR
.ends

* Black-box entry subcircuit for sky130_fd_sc_hd__dfxtp_1 abstract view
.subckt sky130_fd_sc_hd__dfxtp_1 CLK D VGND VNB VPB VPWR Q
.ends

* Black-box entry subcircuit for sky130_fd_sc_hd__decap_3 abstract view
.subckt sky130_fd_sc_hd__decap_3 VGND VNB VPB VPWR
.ends

* Black-box entry subcircuit for sky130_fd_sc_hd__decap_8 abstract view
.subckt sky130_fd_sc_hd__decap_8 VGND VNB VPB VPWR
.ends

* Black-box entry subcircuit for sky130_fd_sc_hd__mux2_1 abstract view
.subckt sky130_fd_sc_hd__mux2_1 A0 A1 S VGND VNB VPB VPWR X
.ends

* Black-box entry subcircuit for sky130_fd_sc_hd__clkbuf_8 abstract view
.subckt sky130_fd_sc_hd__clkbuf_8 A VGND VNB VPB VPWR X
.ends

* Black-box entry subcircuit for sky130_fd_sc_hd__clkbuf_1 abstract view
.subckt sky130_fd_sc_hd__clkbuf_1 A VGND VNB VPB VPWR X
.ends

* Black-box entry subcircuit for sky130_fd_sc_hd__inv_2 abstract view
.subckt sky130_fd_sc_hd__inv_2 A VGND VNB VPB VPWR Y
.ends

* Black-box entry subcircuit for sky130_fd_sc_hd__or4_1 abstract view
.subckt sky130_fd_sc_hd__or4_1 A B C D VGND VNB VPB VPWR X
.ends

* Black-box entry subcircuit for sky130_fd_sc_hd__dlygate4sd3_1 abstract view
.subckt sky130_fd_sc_hd__dlygate4sd3_1 A VGND VNB VPB VPWR X
.ends

* Black-box entry subcircuit for sky130_fd_sc_hd__a22o_1 abstract view
.subckt sky130_fd_sc_hd__a22o_1 A1 A2 B1 B2 VGND VNB VPB VPWR X
.ends

* Black-box entry subcircuit for sky130_fd_sc_hd__clkbuf_4 abstract view
.subckt sky130_fd_sc_hd__clkbuf_4 A VGND VNB VPB VPWR X
.ends

* Black-box entry subcircuit for sky130_fd_sc_hd__and4b_1 abstract view
.subckt sky130_fd_sc_hd__and4b_1 A_N B C D VGND VNB VPB VPWR X
.ends

* Black-box entry subcircuit for sky130_fd_sc_hd__dfrtp_1 abstract view
.subckt sky130_fd_sc_hd__dfrtp_1 CLK D RESET_B VGND VNB VPB VPWR Q
.ends

* Black-box entry subcircuit for sky130_fd_sc_hd__a21o_1 abstract view
.subckt sky130_fd_sc_hd__a21o_1 A1 A2 B1 VGND VNB VPB VPWR X
.ends

* Black-box entry subcircuit for sky130_fd_sc_hd__nand2_4 abstract view
.subckt sky130_fd_sc_hd__nand2_4 A B VGND VNB VPB VPWR Y
.ends

* Black-box entry subcircuit for sky130_fd_sc_hd__a221o_1 abstract view
.subckt sky130_fd_sc_hd__a221o_1 A1 A2 B1 B2 C1 VGND VNB VPB VPWR X
.ends

* Black-box entry subcircuit for sky130_fd_sc_hd__nor2_4 abstract view
.subckt sky130_fd_sc_hd__nor2_4 A B VGND VNB VPB VPWR Y
.ends

* Black-box entry subcircuit for sky130_fd_sc_hd__buf_2 abstract view
.subckt sky130_fd_sc_hd__buf_2 A VGND VNB VPB VPWR X
.ends

* Black-box entry subcircuit for sky130_fd_sc_hd__and4bb_4 abstract view
.subckt sky130_fd_sc_hd__and4bb_4 A_N B_N C D VGND VNB VPB VPWR X
.ends

* Black-box entry subcircuit for sky130_fd_sc_hd__a21oi_2 abstract view
.subckt sky130_fd_sc_hd__a21oi_2 A1 A2 B1 VGND VNB VPB VPWR Y
.ends

* Black-box entry subcircuit for sky130_fd_sc_hd__a31o_1 abstract view
.subckt sky130_fd_sc_hd__a31o_1 A1 A2 A3 B1 VGND VNB VPB VPWR X
.ends

* Black-box entry subcircuit for sky130_fd_sc_hd__o21a_1 abstract view
.subckt sky130_fd_sc_hd__o21a_1 A1 A2 B1 VGND VNB VPB VPWR X
.ends

* Black-box entry subcircuit for sky130_fd_sc_hd__o211a_4 abstract view
.subckt sky130_fd_sc_hd__o211a_4 A1 A2 B1 C1 VGND VNB VPB VPWR X
.ends

* Black-box entry subcircuit for sky130_fd_sc_hd__or3_1 abstract view
.subckt sky130_fd_sc_hd__or3_1 A B C VGND VNB VPB VPWR X
.ends

* Black-box entry subcircuit for sky130_fd_sc_hd__and3_1 abstract view
.subckt sky130_fd_sc_hd__and3_1 A B C VGND VNB VPB VPWR X
.ends

* Black-box entry subcircuit for sky130_fd_sc_hd__or2_1 abstract view
.subckt sky130_fd_sc_hd__or2_1 A B VGND VNB VPB VPWR X
.ends

* Black-box entry subcircuit for sky130_fd_sc_hd__clkbuf_16 abstract view
.subckt sky130_fd_sc_hd__clkbuf_16 A VGND VNB VPB VPWR X
.ends

* Black-box entry subcircuit for sky130_fd_sc_hd__or3b_2 abstract view
.subckt sky130_fd_sc_hd__or3b_2 A B C_N VGND VNB VPB VPWR X
.ends

* Black-box entry subcircuit for sky130_fd_sc_hd__nor2_1 abstract view
.subckt sky130_fd_sc_hd__nor2_1 A B VGND VNB VPB VPWR Y
.ends

* Black-box entry subcircuit for sky130_fd_sc_hd__clkbuf_2 abstract view
.subckt sky130_fd_sc_hd__clkbuf_2 A VGND VNB VPB VPWR X
.ends

* Black-box entry subcircuit for sky130_fd_sc_hd__buf_1 abstract view
.subckt sky130_fd_sc_hd__buf_1 A VGND VNB VPB VPWR X
.ends

* Black-box entry subcircuit for sky130_fd_sc_hd__nor4_1 abstract view
.subckt sky130_fd_sc_hd__nor4_1 A B C D VGND VNB VPB VPWR Y
.ends

* Black-box entry subcircuit for sky130_fd_sc_hd__nor4b_2 abstract view
.subckt sky130_fd_sc_hd__nor4b_2 A B C D_N VGND VNB VPB VPWR Y
.ends

* Black-box entry subcircuit for sky130_fd_sc_hd__and2_1 abstract view
.subckt sky130_fd_sc_hd__and2_1 A B VGND VNB VPB VPWR X
.ends

* Black-box entry subcircuit for sky130_fd_sc_hd__o21ai_4 abstract view
.subckt sky130_fd_sc_hd__o21ai_4 A1 A2 B1 VGND VNB VPB VPWR Y
.ends

* Black-box entry subcircuit for sky130_fd_sc_hd__nand2_1 abstract view
.subckt sky130_fd_sc_hd__nand2_1 A B VGND VNB VPB VPWR Y
.ends

* Black-box entry subcircuit for sky130_fd_sc_hd__or4_4 abstract view
.subckt sky130_fd_sc_hd__or4_4 A B C D VGND VNB VPB VPWR X
.ends

* Black-box entry subcircuit for sky130_fd_sc_hd__dfrtp_2 abstract view
.subckt sky130_fd_sc_hd__dfrtp_2 CLK D RESET_B VGND VNB VPB VPWR Q
.ends

* Black-box entry subcircuit for sky130_fd_sc_hd__buf_4 abstract view
.subckt sky130_fd_sc_hd__buf_4 A VGND VNB VPB VPWR X
.ends

* Black-box entry subcircuit for sky130_fd_sc_hd__or3_2 abstract view
.subckt sky130_fd_sc_hd__or3_2 A B C VGND VNB VPB VPWR X
.ends

* Black-box entry subcircuit for sky130_fd_sc_hd__xnor2_1 abstract view
.subckt sky130_fd_sc_hd__xnor2_1 A B VGND VNB VPB VPWR Y
.ends

* Black-box entry subcircuit for sky130_fd_sc_hd__a21oi_1 abstract view
.subckt sky130_fd_sc_hd__a21oi_1 A1 A2 B1 VGND VNB VPB VPWR Y
.ends

* Black-box entry subcircuit for sky130_fd_sc_hd__xor2_1 abstract view
.subckt sky130_fd_sc_hd__xor2_1 A B VGND VNB VPB VPWR X
.ends

* Black-box entry subcircuit for sky130_fd_sc_hd__and4_1 abstract view
.subckt sky130_fd_sc_hd__and4_1 A B C D VGND VNB VPB VPWR X
.ends

* Black-box entry subcircuit for sky130_fd_sc_hd__or4_2 abstract view
.subckt sky130_fd_sc_hd__or4_2 A B C D VGND VNB VPB VPWR X
.ends

* Black-box entry subcircuit for sky130_fd_sc_hd__nor2_2 abstract view
.subckt sky130_fd_sc_hd__nor2_2 A B VGND VNB VPB VPWR Y
.ends

* Black-box entry subcircuit for sky130_fd_sc_hd__nor4b_1 abstract view
.subckt sky130_fd_sc_hd__nor4b_1 A B C D_N VGND VNB VPB VPWR Y
.ends

.subckt lifo VGND VPWR clk data_in[0] data_in[1] data_in[2] data_in[3] data_in[4]
+ data_in[5] data_in[6] data_in[7] data_out[0] data_out[1] data_out[2] data_out[3]
+ data_out[4] data_out[5] data_out[6] data_out[7] empty error full pop push rst
XTAP_177 VGND VPWR sky130_fd_sc_hd__tapvpwrvgnd_1
XTAP_188 VGND VPWR sky130_fd_sc_hd__tapvpwrvgnd_1
XTAP_199 VGND VPWR sky130_fd_sc_hd__tapvpwrvgnd_1
XFILLER_0_27_82 VGND VGND VPWR VPWR sky130_fd_sc_hd__fill_1
XFILLER_0_17_244 VPWR VGND VPWR VGND sky130_ef_sc_hd__decap_12
XFILLER_0_32_269 VGND VGND VPWR VPWR sky130_fd_sc_hd__decap_6
XFILLER_0_32_203 VGND VGND VPWR VPWR sky130_fd_sc_hd__decap_4
XFILLER_0_4_171 VGND VGND VPWR VPWR sky130_fd_sc_hd__fill_2
XFILLER_0_48_15 VPWR VGND VPWR VGND sky130_ef_sc_hd__decap_12
XFILLER_0_3_39 VPWR VGND VPWR VGND sky130_ef_sc_hd__decap_12
X_0985_ clknet_4_4_0_clk _0036_ VGND VGND VPWR VPWR stack\[0\]\[1\] sky130_fd_sc_hd__dfxtp_1
XFILLER_0_14_236 VGND VGND VPWR VPWR sky130_fd_sc_hd__fill_1
XFILLER_0_52_309 VPWR VGND VPWR VGND sky130_ef_sc_hd__decap_12
XFILLER_0_49_177 VGND VGND VPWR VPWR sky130_fd_sc_hd__decap_3
XFILLER_0_37_317 VGND VGND VPWR VPWR sky130_fd_sc_hd__decap_8
XFILLER_0_18_29 VPWR VGND VPWR VGND sky130_ef_sc_hd__decap_12
XFILLER_0_50_27 VGND VGND VPWR VPWR sky130_fd_sc_hd__fill_1
X_0770_ net115 _0312_ _0368_ VGND VGND VPWR VPWR _0372_ sky130_fd_sc_hd__mux2_1
Xclkbuf_4_12_0_clk clknet_0_clk VGND VGND VPWR VPWR clknet_4_12_0_clk sky130_fd_sc_hd__clkbuf_8
XFILLER_0_34_309 VPWR VGND VPWR VGND sky130_ef_sc_hd__decap_12
X_0968_ clknet_4_7_0_clk _0020_ VGND VGND VPWR VPWR stack\[15\]\[6\] sky130_fd_sc_hd__dfxtp_1
XFILLER_0_24_83 VGND VGND VPWR VPWR sky130_fd_sc_hd__fill_1
XFILLER_0_40_82 VGND VGND VPWR VPWR sky130_fd_sc_hd__fill_2
X_0899_ _0444_ VGND VGND VPWR VPWR _0126_ sky130_fd_sc_hd__clkbuf_1
XFILLER_0_37_125 VGND VGND VPWR VPWR sky130_fd_sc_hd__decap_4
XFILLER_0_37_169 VPWR VGND VPWR VGND sky130_ef_sc_hd__decap_12
XFILLER_0_45_27 VPWR VGND VPWR VGND sky130_ef_sc_hd__decap_12
XFILLER_0_0_29 VPWR VGND VPWR VGND sky130_ef_sc_hd__decap_12
X_0822_ net102 _0308_ _0400_ VGND VGND VPWR VPWR _0402_ sky130_fd_sc_hd__mux2_1
XFILLER_0_9_27 VPWR VGND VPWR VGND sky130_ef_sc_hd__decap_12
XFILLER_0_16_309 VPWR VGND VPWR VGND sky130_ef_sc_hd__decap_12
XFILLER_0_51_161 VGND VGND VPWR VPWR sky130_fd_sc_hd__decap_6
X_0753_ _0362_ VGND VGND VPWR VPWR _0062_ sky130_fd_sc_hd__clkbuf_1
XFILLER_0_3_225 VPWR VGND VPWR VGND sky130_ef_sc_hd__decap_12
XFILLER_0_10_41 VPWR VGND VPWR VGND sky130_ef_sc_hd__decap_12
XFILLER_0_10_85 VPWR VGND VPWR VGND sky130_ef_sc_hd__decap_12
X_0684_ net11 VGND VGND VPWR VPWR _0012_ sky130_fd_sc_hd__inv_2
XFILLER_0_19_72 VGND VGND VPWR VPWR sky130_fd_sc_hd__fill_1
X_1098_ clknet_4_0_0_clk _0149_ VGND VGND VPWR VPWR stack\[14\]\[2\] sky130_fd_sc_hd__dfxtp_1
XFILLER_0_19_125 VGND VGND VPWR VPWR sky130_fd_sc_hd__decap_4
XFILLER_0_42_161 VPWR VGND VPWR VGND sky130_ef_sc_hd__decap_12
XFILLER_0_34_139 VGND VGND VPWR VPWR sky130_fd_sc_hd__fill_1
XFILLER_0_15_19 VGND VGND VPWR VPWR sky130_fd_sc_hd__fill_1
XFILLER_0_25_117 VGND VGND VPWR VPWR sky130_fd_sc_hd__fill_1
X_1021_ clknet_4_8_0_clk _0072_ VGND VGND VPWR VPWR stack\[4\]\[5\] sky130_fd_sc_hd__dfxtp_1
X_0805_ _0391_ VGND VGND VPWR VPWR _0085_ sky130_fd_sc_hd__clkbuf_1
XFILLER_0_21_95 VPWR VGND VPWR VGND sky130_ef_sc_hd__decap_12
X_0598_ _0262_ _0263_ _0264_ _0265_ VGND VGND VPWR VPWR _0266_ sky130_fd_sc_hd__or4_1
X_0736_ net95 _0314_ _0348_ VGND VGND VPWR VPWR _0353_ sky130_fd_sc_hd__mux2_1
X_0667_ _0318_ net147 _0306_ VGND VGND VPWR VPWR _0319_ sky130_fd_sc_hd__mux2_1
XFILLER_0_34_3 VPWR VGND VPWR VGND sky130_ef_sc_hd__decap_12
XFILLER_0_15_161 VGND VGND VPWR VPWR sky130_fd_sc_hd__decap_6
XFILLER_0_22_109 VGND VGND VPWR VPWR sky130_fd_sc_hd__decap_4
Xhold52 stack\[7\]\[0\] VGND VGND VPWR VPWR net81 sky130_fd_sc_hd__dlygate4sd3_1
Xhold41 stack\[12\]\[7\] VGND VGND VPWR VPWR net70 sky130_fd_sc_hd__dlygate4sd3_1
Xhold63 stack\[8\]\[2\] VGND VGND VPWR VPWR net92 sky130_fd_sc_hd__dlygate4sd3_1
Xhold74 stack\[0\]\[2\] VGND VGND VPWR VPWR net103 sky130_fd_sc_hd__dlygate4sd3_1
Xhold30 stack\[10\]\[1\] VGND VGND VPWR VPWR net59 sky130_fd_sc_hd__dlygate4sd3_1
XFILLER_0_30_197 VPWR VGND VPWR VGND sky130_ef_sc_hd__decap_12
Xhold96 stack\[9\]\[4\] VGND VGND VPWR VPWR net125 sky130_fd_sc_hd__dlygate4sd3_1
Xhold85 stack\[11\]\[7\] VGND VGND VPWR VPWR net114 sky130_fd_sc_hd__dlygate4sd3_1
XFILLER_0_53_278 VGND VGND VPWR VPWR sky130_fd_sc_hd__fill_2
XFILLER_0_53_223 VGND VGND VPWR VPWR sky130_fd_sc_hd__fill_1
XFILLER_0_38_253 VGND VGND VPWR VPWR sky130_fd_sc_hd__fill_1
XTAP_348 VGND VPWR sky130_fd_sc_hd__tapvpwrvgnd_1
XTAP_337 VGND VPWR sky130_fd_sc_hd__tapvpwrvgnd_1
X_0521_ stack\[3\]\[7\] net24 _0195_ stack\[13\]\[7\] VGND VGND VPWR VPWR _0196_ sky130_fd_sc_hd__a22o_1
XTAP_326 VGND VPWR sky130_fd_sc_hd__tapvpwrvgnd_1
XTAP_315 VGND VPWR sky130_fd_sc_hd__tapvpwrvgnd_1
XTAP_304 VGND VPWR sky130_fd_sc_hd__tapvpwrvgnd_1
XTAP_359 VGND VPWR sky130_fd_sc_hd__tapvpwrvgnd_1
XFILLER_0_16_62 VPWR VGND VPWR VGND sky130_ef_sc_hd__decap_12
XFILLER_0_32_83 VGND VGND VPWR VPWR sky130_fd_sc_hd__fill_1
X_1004_ clknet_4_4_0_clk _0055_ VGND VGND VPWR VPWR stack\[2\]\[4\] sky130_fd_sc_hd__dfxtp_1
XFILLER_0_29_297 VPWR VGND VPWR VGND sky130_ef_sc_hd__decap_12
XFILLER_0_12_153 VGND VGND VPWR VPWR sky130_fd_sc_hd__decap_3
X_0719_ _0316_ net156 _0337_ VGND VGND VPWR VPWR _0343_ sky130_fd_sc_hd__mux2_1
XFILLER_0_35_256 VPWR VGND VPWR VGND sky130_ef_sc_hd__decap_12
XFILLER_0_35_212 VPWR VGND VPWR VGND sky130_ef_sc_hd__decap_12
Xoutput20 net20 VGND VGND VPWR VPWR empty sky130_fd_sc_hd__clkbuf_4
XFILLER_0_53_27 VPWR VGND VPWR VGND sky130_ef_sc_hd__decap_12
XFILLER_0_26_234 VGND VGND VPWR VPWR sky130_fd_sc_hd__fill_1
XFILLER_0_26_289 VPWR VGND VPWR VGND sky130_ef_sc_hd__decap_12
X_0504_ _0178_ VGND VGND VPWR VPWR _0179_ sky130_fd_sc_hd__clkbuf_4
XTAP_156 VGND VPWR sky130_fd_sc_hd__tapvpwrvgnd_1
XTAP_145 VGND VPWR sky130_fd_sc_hd__tapvpwrvgnd_1
XTAP_134 VGND VPWR sky130_fd_sc_hd__tapvpwrvgnd_1
XTAP_112 VGND VPWR sky130_fd_sc_hd__tapvpwrvgnd_1
XTAP_123 VGND VPWR sky130_fd_sc_hd__tapvpwrvgnd_1
XTAP_167 VGND VPWR sky130_fd_sc_hd__tapvpwrvgnd_1
XTAP_178 VGND VPWR sky130_fd_sc_hd__tapvpwrvgnd_1
XTAP_189 VGND VPWR sky130_fd_sc_hd__tapvpwrvgnd_1
XFILLER_0_17_256 VPWR VGND VPWR VGND sky130_ef_sc_hd__decap_12
XFILLER_0_4_194 VGND VGND VPWR VPWR sky130_fd_sc_hd__fill_2
XFILLER_0_48_27 VGND VGND VPWR VPWR sky130_fd_sc_hd__fill_1
XFILLER_0_31_281 VPWR VGND VPWR VGND sky130_ef_sc_hd__decap_12
X_0984_ clknet_4_4_0_clk _0035_ VGND VGND VPWR VPWR stack\[0\]\[0\] sky130_fd_sc_hd__dfxtp_1
XFILLER_0_13_281 VPWR VGND VPWR VGND sky130_ef_sc_hd__decap_12
XFILLER_0_28_307 VGND VGND VPWR VPWR sky130_fd_sc_hd__fill_1
XFILLER_0_11_218 VGND VGND VPWR VPWR sky130_fd_sc_hd__decap_3
XFILLER_0_46_137 VGND VGND VPWR VPWR sky130_fd_sc_hd__decap_3
XFILLER_0_6_212 VGND VGND VPWR VPWR sky130_fd_sc_hd__fill_1
X_0967_ clknet_4_3_0_clk _0019_ VGND VGND VPWR VPWR stack\[15\]\[5\] sky130_fd_sc_hd__dfxtp_1
XFILLER_0_10_251 VGND VGND VPWR VPWR sky130_fd_sc_hd__fill_1
X_0898_ net141 net4 _0440_ VGND VGND VPWR VPWR _0444_ sky130_fd_sc_hd__mux2_1
XFILLER_0_4_83 VGND VGND VPWR VPWR sky130_fd_sc_hd__fill_1
XFILLER_0_45_181 VPWR VGND VPWR VGND sky130_ef_sc_hd__decap_12
XFILLER_0_45_39 VPWR VGND VPWR VGND sky130_ef_sc_hd__decap_12
X_0821_ _0401_ VGND VGND VPWR VPWR _0091_ sky130_fd_sc_hd__clkbuf_1
XFILLER_0_43_107 VGND VGND VPWR VPWR sky130_fd_sc_hd__decap_4
X_0752_ _0312_ net150 _0358_ VGND VGND VPWR VPWR _0362_ sky130_fd_sc_hd__mux2_1
XFILLER_0_9_39 VPWR VGND VPWR VGND sky130_ef_sc_hd__decap_12
XFILLER_0_10_20 VGND VGND VPWR VPWR sky130_fd_sc_hd__decap_8
XFILLER_0_24_321 VGND VGND VPWR VPWR sky130_fd_sc_hd__decap_4
XFILLER_0_3_237 VPWR VGND VPWR VGND sky130_ef_sc_hd__decap_12
XFILLER_0_10_53 VGND VGND VPWR VPWR sky130_fd_sc_hd__decap_8
XFILLER_0_10_97 VPWR VGND VPWR VGND sky130_ef_sc_hd__decap_12
X_0683_ net11 VGND VGND VPWR VPWR _0011_ sky130_fd_sc_hd__inv_2
XFILLER_0_19_84 VGND VGND VPWR VPWR sky130_fd_sc_hd__fill_2
XFILLER_0_19_95 VGND VGND VPWR VPWR sky130_fd_sc_hd__decap_6
XFILLER_0_35_72 VGND VGND VPWR VPWR sky130_fd_sc_hd__fill_1
X_1097_ clknet_4_1_0_clk _0148_ VGND VGND VPWR VPWR stack\[14\]\[1\] sky130_fd_sc_hd__dfxtp_1
XFILLER_0_42_173 VGND VGND VPWR VPWR sky130_fd_sc_hd__decap_4
XFILLER_0_31_19 VGND VGND VPWR VPWR sky130_fd_sc_hd__decap_8
Xclkbuf_4_11_0_clk clknet_0_clk VGND VGND VPWR VPWR clknet_4_11_0_clk sky130_fd_sc_hd__clkbuf_8
X_1020_ clknet_4_5_0_clk _0071_ VGND VGND VPWR VPWR stack\[4\]\[4\] sky130_fd_sc_hd__dfxtp_1
X_0804_ _0310_ net136 _0388_ VGND VGND VPWR VPWR _0391_ sky130_fd_sc_hd__mux2_1
XFILLER_0_16_118 VGND VGND VPWR VPWR sky130_fd_sc_hd__fill_2
X_0735_ _0352_ VGND VGND VPWR VPWR _0054_ sky130_fd_sc_hd__clkbuf_1
XFILLER_0_24_162 VPWR VGND VPWR VGND sky130_ef_sc_hd__decap_12
X_0666_ net7 VGND VGND VPWR VPWR _0318_ sky130_fd_sc_hd__clkbuf_4
X_0597_ stack\[3\]\[1\] net23 _0195_ stack\[13\]\[1\] VGND VGND VPWR VPWR _0265_ sky130_fd_sc_hd__a22o_1
XFILLER_0_46_71 VPWR VGND VPWR VGND sky130_ef_sc_hd__decap_12
XFILLER_0_1_51 VGND VGND VPWR VPWR sky130_fd_sc_hd__decap_4
XFILLER_0_27_3 VPWR VGND VPWR VGND sky130_ef_sc_hd__decap_12
XFILLER_0_47_232 VGND VGND VPWR VPWR sky130_fd_sc_hd__decap_4
XFILLER_0_30_187 VGND VGND VPWR VPWR sky130_fd_sc_hd__decap_8
Xhold64 stack\[9\]\[5\] VGND VGND VPWR VPWR net93 sky130_fd_sc_hd__dlygate4sd3_1
Xhold31 stack\[13\]\[2\] VGND VGND VPWR VPWR net60 sky130_fd_sc_hd__dlygate4sd3_1
Xhold42 stack\[5\]\[2\] VGND VGND VPWR VPWR net71 sky130_fd_sc_hd__dlygate4sd3_1
Xhold86 stack\[4\]\[3\] VGND VGND VPWR VPWR net115 sky130_fd_sc_hd__dlygate4sd3_1
Xhold75 stack\[2\]\[3\] VGND VGND VPWR VPWR net104 sky130_fd_sc_hd__dlygate4sd3_1
Xhold97 stack\[10\]\[3\] VGND VGND VPWR VPWR net126 sky130_fd_sc_hd__dlygate4sd3_1
Xhold53 stack\[11\]\[0\] VGND VGND VPWR VPWR net82 sky130_fd_sc_hd__dlygate4sd3_1
Xhold20 stack\[14\]\[5\] VGND VGND VPWR VPWR net49 sky130_fd_sc_hd__dlygate4sd3_1
XFILLER_0_42_29 VGND VGND VPWR VPWR sky130_fd_sc_hd__fill_2
XFILLER_0_38_232 VGND VGND VPWR VPWR sky130_fd_sc_hd__decap_4
XFILLER_0_38_221 VGND VGND VPWR VPWR sky130_fd_sc_hd__decap_4
XTAP_349 VGND VPWR sky130_fd_sc_hd__tapvpwrvgnd_1
XTAP_338 VGND VPWR sky130_fd_sc_hd__tapvpwrvgnd_1
XTAP_327 VGND VPWR sky130_fd_sc_hd__tapvpwrvgnd_1
XTAP_316 VGND VPWR sky130_fd_sc_hd__tapvpwrvgnd_1
X_0520_ _0194_ VGND VGND VPWR VPWR _0195_ sky130_fd_sc_hd__clkbuf_4
XTAP_305 VGND VPWR sky130_fd_sc_hd__tapvpwrvgnd_1
XFILLER_0_6_29 VPWR VGND VPWR VGND sky130_ef_sc_hd__decap_12
XFILLER_0_16_74 VGND VGND VPWR VPWR sky130_fd_sc_hd__decap_8
X_1003_ clknet_4_2_0_clk _0054_ VGND VGND VPWR VPWR stack\[2\]\[3\] sky130_fd_sc_hd__dfxtp_1
XFILLER_0_44_246 VGND VGND VPWR VPWR sky130_fd_sc_hd__decap_3
XFILLER_0_32_51 VPWR VGND VPWR VGND sky130_ef_sc_hd__decap_12
XFILLER_0_29_254 VGND VGND VPWR VPWR sky130_fd_sc_hd__fill_2
XFILLER_0_29_265 VPWR VGND VPWR VGND sky130_ef_sc_hd__decap_12
X_0718_ _0342_ VGND VGND VPWR VPWR _0047_ sky130_fd_sc_hd__clkbuf_1
XFILLER_0_4_321 VGND VGND VPWR VPWR sky130_fd_sc_hd__decap_4
X_0649_ _0305_ net133 _0306_ VGND VGND VPWR VPWR _0307_ sky130_fd_sc_hd__mux2_1
XFILLER_0_35_268 VPWR VGND VPWR VGND sky130_ef_sc_hd__decap_12
Xoutput21 net21 VGND VGND VPWR VPWR error sky130_fd_sc_hd__clkbuf_4
XFILLER_0_53_39 VPWR VGND VPWR VGND sky130_ef_sc_hd__decap_12
XFILLER_0_26_268 VGND VGND VPWR VPWR sky130_fd_sc_hd__fill_1
X_0503_ _0161_ _0162_ _0165_ _0157_ VGND VGND VPWR VPWR _0178_ sky130_fd_sc_hd__and4b_1
XTAP_157 VGND VPWR sky130_fd_sc_hd__tapvpwrvgnd_1
XTAP_146 VGND VPWR sky130_fd_sc_hd__tapvpwrvgnd_1
XTAP_135 VGND VPWR sky130_fd_sc_hd__tapvpwrvgnd_1
XTAP_113 VGND VPWR sky130_fd_sc_hd__tapvpwrvgnd_1
XTAP_124 VGND VPWR sky130_fd_sc_hd__tapvpwrvgnd_1
XTAP_168 VGND VPWR sky130_fd_sc_hd__tapvpwrvgnd_1
XTAP_179 VGND VPWR sky130_fd_sc_hd__tapvpwrvgnd_1
XFILLER_0_49_305 VPWR VGND VPWR VGND sky130_ef_sc_hd__decap_12
XFILLER_0_40_271 VPWR VGND VPWR VGND sky130_ef_sc_hd__decap_12
XFILLER_0_31_293 VPWR VGND VPWR VGND sky130_ef_sc_hd__decap_12
XFILLER_0_13_53 VGND VGND VPWR VPWR sky130_fd_sc_hd__decap_3
XFILLER_0_14_216 VPWR VGND VPWR VGND sky130_ef_sc_hd__decap_12
X_0983_ clknet_4_7_0_clk _0034_ _0013_ VGND VGND VPWR VPWR net19 sky130_fd_sc_hd__dfrtp_1
XFILLER_0_49_146 VGND VGND VPWR VPWR sky130_fd_sc_hd__fill_1
XFILLER_0_13_293 VPWR VGND VPWR VGND sky130_ef_sc_hd__decap_12
XFILLER_0_50_29 VPWR VGND VPWR VGND sky130_ef_sc_hd__decap_12
XFILLER_0_46_149 VGND VGND VPWR VPWR sky130_fd_sc_hd__decap_8
XFILLER_0_24_41 VGND VGND VPWR VPWR sky130_fd_sc_hd__decap_3
XFILLER_0_24_85 VGND VGND VPWR VPWR sky130_fd_sc_hd__decap_3
X_0966_ clknet_4_5_0_clk _0018_ VGND VGND VPWR VPWR stack\[15\]\[4\] sky130_fd_sc_hd__dfxtp_1
X_0897_ _0443_ VGND VGND VPWR VPWR _0125_ sky130_fd_sc_hd__clkbuf_1
XFILLER_0_49_60 VPWR VGND VPWR VGND sky130_ef_sc_hd__decap_12
XFILLER_0_37_138 VGND VGND VPWR VPWR sky130_fd_sc_hd__decap_6
XFILLER_0_45_193 VGND VGND VPWR VPWR sky130_fd_sc_hd__decap_8
XFILLER_0_28_116 VGND VGND VPWR VPWR sky130_fd_sc_hd__decap_4
XFILLER_0_51_130 VGND VGND VPWR VPWR sky130_fd_sc_hd__decap_8
X_0820_ net81 _0305_ _0400_ VGND VGND VPWR VPWR _0401_ sky130_fd_sc_hd__mux2_1
X_0751_ _0361_ VGND VGND VPWR VPWR _0061_ sky130_fd_sc_hd__clkbuf_1
XFILLER_0_3_249 VPWR VGND VPWR VGND sky130_ef_sc_hd__decap_12
X_0682_ _0322_ VGND VGND VPWR VPWR _0010_ sky130_fd_sc_hd__inv_2
X_1096_ clknet_4_9_0_clk _0147_ VGND VGND VPWR VPWR stack\[14\]\[0\] sky130_fd_sc_hd__dfxtp_1
XFILLER_0_29_7 VGND VGND VPWR VPWR sky130_fd_sc_hd__decap_4
XFILLER_0_19_138 VPWR VGND VPWR VGND sky130_ef_sc_hd__decap_12
X_0949_ _0472_ VGND VGND VPWR VPWR _0148_ sky130_fd_sc_hd__clkbuf_1
XFILLER_0_25_108 VGND VGND VPWR VPWR sky130_fd_sc_hd__decap_4
X_0803_ _0390_ VGND VGND VPWR VPWR _0084_ sky130_fd_sc_hd__clkbuf_1
X_0734_ net104 _0312_ _0348_ VGND VGND VPWR VPWR _0352_ sky130_fd_sc_hd__mux2_1
XFILLER_0_21_53 VGND VGND VPWR VPWR sky130_fd_sc_hd__decap_3
XFILLER_0_21_86 VGND VGND VPWR VPWR sky130_fd_sc_hd__fill_1
X_0665_ _0317_ VGND VGND VPWR VPWR _0019_ sky130_fd_sc_hd__clkbuf_1
XFILLER_0_24_174 VGND VGND VPWR VPWR sky130_fd_sc_hd__decap_6
X_0596_ stack\[5\]\[1\] _0190_ net25 VGND VGND VPWR VPWR _0264_ sky130_fd_sc_hd__a21o_1
XFILLER_0_46_83 VGND VGND VPWR VPWR sky130_fd_sc_hd__fill_1
X_1079_ clknet_4_4_0_clk _0130_ VGND VGND VPWR VPWR stack\[11\]\[7\] sky130_fd_sc_hd__dfxtp_1
Xhold87 stack\[12\]\[4\] VGND VGND VPWR VPWR net116 sky130_fd_sc_hd__dlygate4sd3_1
Xhold98 stack\[12\]\[5\] VGND VGND VPWR VPWR net127 sky130_fd_sc_hd__dlygate4sd3_1
Xhold54 stack\[7\]\[4\] VGND VGND VPWR VPWR net83 sky130_fd_sc_hd__dlygate4sd3_1
Xhold32 stack\[5\]\[6\] VGND VGND VPWR VPWR net61 sky130_fd_sc_hd__dlygate4sd3_1
Xhold21 stack\[8\]\[1\] VGND VGND VPWR VPWR net50 sky130_fd_sc_hd__dlygate4sd3_1
Xhold65 stack\[10\]\[4\] VGND VGND VPWR VPWR net94 sky130_fd_sc_hd__dlygate4sd3_1
Xhold76 stack\[10\]\[7\] VGND VGND VPWR VPWR net105 sky130_fd_sc_hd__dlygate4sd3_1
Xhold10 _0030_ VGND VGND VPWR VPWR net39 sky130_fd_sc_hd__dlygate4sd3_1
Xhold43 stack\[4\]\[0\] VGND VGND VPWR VPWR net72 sky130_fd_sc_hd__dlygate4sd3_1
XFILLER_0_53_214 VGND VGND VPWR VPWR sky130_fd_sc_hd__decap_6
XFILLER_0_38_244 VGND VGND VPWR VPWR sky130_fd_sc_hd__fill_1
XFILLER_0_53_258 VPWR VGND VPWR VGND sky130_ef_sc_hd__decap_12
XFILLER_0_6_19 VGND VGND VPWR VPWR sky130_fd_sc_hd__decap_8
XFILLER_0_21_111 VGND VGND VPWR VPWR sky130_fd_sc_hd__fill_1
XTAP_339 VGND VPWR sky130_fd_sc_hd__tapvpwrvgnd_1
XTAP_328 VGND VPWR sky130_fd_sc_hd__tapvpwrvgnd_1
XTAP_317 VGND VPWR sky130_fd_sc_hd__tapvpwrvgnd_1
XTAP_306 VGND VPWR sky130_fd_sc_hd__tapvpwrvgnd_1
X_1002_ clknet_4_0_0_clk _0053_ VGND VGND VPWR VPWR stack\[2\]\[2\] sky130_fd_sc_hd__dfxtp_1
XFILLER_0_29_200 VPWR VGND VPWR VGND sky130_ef_sc_hd__decap_12
XFILLER_0_29_222 VGND VGND VPWR VPWR sky130_fd_sc_hd__fill_2
XFILLER_0_44_269 VPWR VGND VPWR VGND sky130_ef_sc_hd__decap_12
XFILLER_0_32_85 VPWR VGND VPWR VGND sky130_ef_sc_hd__decap_12
XFILLER_0_32_63 VPWR VGND VPWR VGND sky130_ef_sc_hd__decap_12
XFILLER_0_32_41 VGND VGND VPWR VPWR sky130_fd_sc_hd__decap_6
XFILLER_0_29_244 VGND VGND VPWR VPWR sky130_fd_sc_hd__fill_1
XFILLER_0_29_277 VGND VGND VPWR VPWR sky130_fd_sc_hd__decap_3
X_0717_ _0314_ net165 _0337_ VGND VGND VPWR VPWR _0342_ sky130_fd_sc_hd__mux2_1
X_0648_ _0000_ _0280_ VGND VGND VPWR VPWR _0306_ sky130_fd_sc_hd__nand2_4
X_0579_ stack\[15\]\[2\] _0159_ _0164_ stack\[1\]\[2\] _0247_ VGND VGND VPWR VPWR
+ _0248_ sky130_fd_sc_hd__a221o_1
XFILLER_0_50_217 VPWR VGND VPWR VGND sky130_ef_sc_hd__decap_12
XFILLER_0_50_206 VGND VGND VPWR VPWR sky130_fd_sc_hd__decap_8
Xclkbuf_4_10_0_clk clknet_0_clk VGND VGND VPWR VPWR clknet_4_10_0_clk sky130_fd_sc_hd__clkbuf_8
Xoutput22 net22 VGND VGND VPWR VPWR full sky130_fd_sc_hd__clkbuf_4
XFILLER_0_9_3 VPWR VGND VPWR VGND sky130_ef_sc_hd__decap_12
XTAP_114 VGND VPWR sky130_fd_sc_hd__tapvpwrvgnd_1
X_0502_ _0176_ _0163_ VGND VGND VPWR VPWR _0177_ sky130_fd_sc_hd__nor2_4
XTAP_158 VGND VPWR sky130_fd_sc_hd__tapvpwrvgnd_1
XTAP_147 VGND VPWR sky130_fd_sc_hd__tapvpwrvgnd_1
XTAP_136 VGND VPWR sky130_fd_sc_hd__tapvpwrvgnd_1
XTAP_125 VGND VPWR sky130_fd_sc_hd__tapvpwrvgnd_1
XTAP_169 VGND VPWR sky130_fd_sc_hd__tapvpwrvgnd_1
XFILLER_0_49_317 VGND VGND VPWR VPWR sky130_fd_sc_hd__decap_8
XFILLER_0_4_141 VGND VGND VPWR VPWR sky130_fd_sc_hd__fill_2
XFILLER_0_40_283 VPWR VGND VPWR VGND sky130_ef_sc_hd__decap_12
XFILLER_0_40_250 VGND VGND VPWR VPWR sky130_fd_sc_hd__fill_2
XFILLER_0_48_29 VPWR VGND VPWR VGND sky130_ef_sc_hd__decap_12
XFILLER_0_23_228 VPWR VGND VPWR VGND sky130_ef_sc_hd__decap_12
XFILLER_0_46_309 VPWR VGND VPWR VGND sky130_ef_sc_hd__decap_12
XFILLER_0_13_76 VGND VGND VPWR VPWR sky130_fd_sc_hd__fill_2
XFILLER_0_13_98 VGND VGND VPWR VPWR sky130_fd_sc_hd__decap_3
XFILLER_0_14_228 VGND VGND VPWR VPWR sky130_fd_sc_hd__decap_8
X_0982_ clknet_4_7_0_clk net35 _0012_ VGND VGND VPWR VPWR net18 sky130_fd_sc_hd__dfrtp_1
XFILLER_0_1_111 VGND VGND VPWR VPWR sky130_fd_sc_hd__fill_1
XFILLER_0_54_72 VPWR VGND VPWR VGND sky130_ef_sc_hd__decap_12
XFILLER_0_49_169 VGND VGND VPWR VPWR sky130_fd_sc_hd__decap_8
XFILLER_0_20_209 VPWR VGND VPWR VGND sky130_ef_sc_hd__decap_12
Xhold140 stack\[2\]\[0\] VGND VGND VPWR VPWR net169 sky130_fd_sc_hd__dlygate4sd3_1
XFILLER_0_28_309 VPWR VGND VPWR VGND sky130_ef_sc_hd__decap_12
XFILLER_0_46_117 VGND VGND VPWR VPWR sky130_fd_sc_hd__fill_1
XFILLER_0_39_180 VGND VGND VPWR VPWR sky130_fd_sc_hd__fill_2
XFILLER_0_27_320 VGND VGND VPWR VPWR sky130_fd_sc_hd__decap_4
XFILLER_0_42_301 VGND VGND VPWR VPWR sky130_fd_sc_hd__decap_6
XFILLER_0_40_85 VGND VGND VPWR VPWR sky130_fd_sc_hd__decap_8
XFILLER_0_40_41 VPWR VGND VPWR VGND sky130_ef_sc_hd__decap_12
X_0896_ net76 net3 _0440_ VGND VGND VPWR VPWR _0443_ sky130_fd_sc_hd__mux2_1
X_0965_ clknet_4_3_0_clk _0017_ VGND VGND VPWR VPWR stack\[15\]\[3\] sky130_fd_sc_hd__dfxtp_1
XFILLER_0_49_72 VGND VGND VPWR VPWR sky130_fd_sc_hd__fill_2
XFILLER_0_4_85 VGND VGND VPWR VPWR sky130_fd_sc_hd__decap_3
XFILLER_0_4_41 VPWR VGND VPWR VGND sky130_ef_sc_hd__decap_12
XFILLER_0_10_253 VPWR VGND VPWR VGND sky130_ef_sc_hd__decap_12
XFILLER_0_28_139 VGND VGND VPWR VPWR sky130_fd_sc_hd__fill_1
X_0750_ _0310_ net120 _0358_ VGND VGND VPWR VPWR _0361_ sky130_fd_sc_hd__mux2_1
X_0681_ _0322_ VGND VGND VPWR VPWR _0009_ sky130_fd_sc_hd__inv_2
X_1095_ clknet_4_12_0_clk _0146_ VGND VGND VPWR VPWR stack\[13\]\[7\] sky130_fd_sc_hd__dfxtp_1
X_0948_ net98 net2 _0470_ VGND VGND VPWR VPWR _0472_ sky130_fd_sc_hd__mux2_1
X_0879_ _0433_ VGND VGND VPWR VPWR _0117_ sky130_fd_sc_hd__clkbuf_1
XFILLER_0_0_209 VPWR VGND VPWR VGND sky130_ef_sc_hd__decap_12
XFILLER_0_8_309 VPWR VGND VPWR VGND sky130_ef_sc_hd__decap_12
X_0802_ _0308_ net123 _0388_ VGND VGND VPWR VPWR _0390_ sky130_fd_sc_hd__mux2_1
X_0733_ _0351_ VGND VGND VPWR VPWR _0053_ sky130_fd_sc_hd__clkbuf_1
X_0664_ _0316_ net111 _0306_ VGND VGND VPWR VPWR _0317_ sky130_fd_sc_hd__mux2_1
XFILLER_0_24_153 VGND VGND VPWR VPWR sky130_fd_sc_hd__fill_1
X_0595_ stack\[8\]\[1\] _0187_ _0188_ stack\[9\]\[1\] VGND VGND VPWR VPWR _0263_ sky130_fd_sc_hd__a22o_1
X_1078_ clknet_4_6_0_clk _0129_ VGND VGND VPWR VPWR stack\[11\]\[6\] sky130_fd_sc_hd__dfxtp_1
Xhold22 stack\[8\]\[3\] VGND VGND VPWR VPWR net51 sky130_fd_sc_hd__dlygate4sd3_1
Xhold11 stack\[9\]\[1\] VGND VGND VPWR VPWR net40 sky130_fd_sc_hd__dlygate4sd3_1
Xhold44 stack\[8\]\[7\] VGND VGND VPWR VPWR net73 sky130_fd_sc_hd__dlygate4sd3_1
Xhold55 stack\[9\]\[2\] VGND VGND VPWR VPWR net84 sky130_fd_sc_hd__dlygate4sd3_1
Xhold66 stack\[2\]\[4\] VGND VGND VPWR VPWR net95 sky130_fd_sc_hd__dlygate4sd3_1
Xhold88 stack\[4\]\[7\] VGND VGND VPWR VPWR net117 sky130_fd_sc_hd__dlygate4sd3_1
Xhold99 stack\[14\]\[7\] VGND VGND VPWR VPWR net128 sky130_fd_sc_hd__dlygate4sd3_1
Xhold77 stack\[0\]\[5\] VGND VGND VPWR VPWR net106 sky130_fd_sc_hd__dlygate4sd3_1
Xhold33 stack\[4\]\[5\] VGND VGND VPWR VPWR net62 sky130_fd_sc_hd__dlygate4sd3_1
XTAP_329 VGND VPWR sky130_fd_sc_hd__tapvpwrvgnd_1
XTAP_318 VGND VPWR sky130_fd_sc_hd__tapvpwrvgnd_1
XTAP_307 VGND VPWR sky130_fd_sc_hd__tapvpwrvgnd_1
X_1001_ clknet_4_0_0_clk _0052_ VGND VGND VPWR VPWR stack\[2\]\[1\] sky130_fd_sc_hd__dfxtp_1
XFILLER_0_29_212 VGND VGND VPWR VPWR sky130_fd_sc_hd__decap_6
XFILLER_0_52_281 VPWR VGND VPWR VGND sky130_ef_sc_hd__decap_12
XFILLER_0_44_226 VPWR VGND VPWR VGND sky130_ef_sc_hd__decap_12
XFILLER_0_32_97 VGND VGND VPWR VPWR sky130_fd_sc_hd__decap_4
XFILLER_0_32_75 VGND VGND VPWR VPWR sky130_fd_sc_hd__decap_8
XFILLER_0_8_139 VGND VGND VPWR VPWR sky130_fd_sc_hd__fill_1
X_0578_ stack\[6\]\[2\] _0167_ _0170_ stack\[14\]\[2\] VGND VGND VPWR VPWR _0247_
+ sky130_fd_sc_hd__a22o_1
X_0716_ _0341_ VGND VGND VPWR VPWR _0046_ sky130_fd_sc_hd__clkbuf_1
X_0647_ net11 VGND VGND VPWR VPWR _0000_ sky130_fd_sc_hd__inv_2
XFILLER_0_32_3 VPWR VGND VPWR VGND sky130_ef_sc_hd__decap_12
XFILLER_0_50_229 VGND VGND VPWR VPWR sky130_fd_sc_hd__decap_6
XFILLER_0_43_281 VPWR VGND VPWR VGND sky130_ef_sc_hd__decap_12
Xoutput12 net12 VGND VGND VPWR VPWR data_out[0] sky130_fd_sc_hd__clkbuf_4
XFILLER_0_34_281 VPWR VGND VPWR VGND sky130_ef_sc_hd__decap_12
XTAP_148 VGND VPWR sky130_fd_sc_hd__tapvpwrvgnd_1
XTAP_137 VGND VPWR sky130_fd_sc_hd__tapvpwrvgnd_1
XTAP_126 VGND VPWR sky130_fd_sc_hd__tapvpwrvgnd_1
XTAP_115 VGND VPWR sky130_fd_sc_hd__tapvpwrvgnd_1
X_0501_ _0165_ VGND VGND VPWR VPWR _0176_ sky130_fd_sc_hd__inv_2
XTAP_159 VGND VPWR sky130_fd_sc_hd__tapvpwrvgnd_1
XFILLER_0_27_53 VGND VGND VPWR VPWR sky130_fd_sc_hd__decap_3
XFILLER_0_32_207 VGND VGND VPWR VPWR sky130_fd_sc_hd__fill_1
XFILLER_0_4_197 VPWR VGND VPWR VGND sky130_ef_sc_hd__decap_12
XFILLER_0_4_186 VGND VGND VPWR VPWR sky130_fd_sc_hd__decap_8
XFILLER_0_25_281 VPWR VGND VPWR VGND sky130_ef_sc_hd__decap_12
XFILLER_0_40_295 VPWR VGND VPWR VGND sky130_ef_sc_hd__decap_12