*SPEF "ieee 1481-1999"
*DESIGN "lifo"
*DATE "11:11:11 Fri 11 11, 1111"
*VENDOR "OpenRCX"
*PROGRAM "Parallel Extraction"
*VERSION "1.0"
*DESIGN_FLOW "NAME_SCOPE LOCAL" "PIN_CAP NONE"
*DIVIDER /
*DELIMITER :
*BUS_DELIMITER []
*T_UNIT 1 NS
*C_UNIT 1 PF
*R_UNIT 1 OHM
*L_UNIT 1 HENRY

*NAME_MAP
*3 clk
*4 data_in[0]
*5 data_in[1]
*6 data_in[2]
*7 data_in[3]
*8 data_in[4]
*9 data_in[5]
*10 data_in[6]
*11 data_in[7]
*12 data_out[0]
*13 data_out[1]
*14 data_out[2]
*15 data_out[3]
*16 data_out[4]
*17 data_out[5]
*18 data_out[6]
*19 data_out[7]
*20 empty
*21 error
*22 full
*23 pop
*24 push
*25 rst
*26 _0000_
*27 _0001_
*28 _0002_
*29 _0003_
*30 _0004_
*31 _0005_
*32 _0006_
*33 _0007_
*34 _0008_
*35 _0009_
*36 _0010_
*37 _0011_
*38 _0012_
*39 _0013_
*40 _0014_
*41 _0015_
*42 _0016_
*43 _0017_
*44 _0018_
*45 _0019_
*46 _0020_
*47 _0021_
*48 _0022_
*49 _0023_
*50 _0024_
*51 _0025_
*52 _0026_
*53 _0027_
*54 _0028_
*55 _0029_
*56 _0030_
*57 _0031_
*58 _0032_
*59 _0033_
*60 _0034_
*61 _0035_
*62 _0036_
*63 _0037_
*64 _0038_
*65 _0039_
*66 _0040_
*67 _0041_
*68 _0042_
*69 _0043_
*70 _0044_
*71 _0045_
*72 _0046_
*73 _0047_
*74 _0048_
*75 _0049_
*76 _0050_
*77 _0051_
*78 _0052_
*79 _0053_
*80 _0054_
*81 _0055_
*82 _0056_
*83 _0057_
*84 _0058_
*85 _0059_
*86 _0060_
*87 _0061_
*88 _0062_
*89 _0063_
*90 _0064_
*91 _0065_
*92 _0066_
*93 _0067_
*94 _0068_
*95 _0069_
*96 _0070_
*97 _0071_
*98 _0072_
*99 _0073_
*100 _0074_
*101 _0075_
*102 _0076_
*103 _0077_
*104 _0078_
*105 _0079_
*106 _0080_
*107 _0081_
*108 _0082_
*109 _0083_
*110 _0084_
*111 _0085_
*112 _0086_
*113 _0087_
*114 _0088_
*115 _0089_
*116 _0090_
*117 _0091_
*118 _0092_
*119 _0093_
*120 _0094_
*121 _0095_
*122 _0096_
*123 _0097_
*124 _0098_
*125 _0099_
*126 _0100_
*127 _0101_
*128 _0102_
*129 _0103_
*130 _0104_
*131 _0105_
*132 _0106_
*133 _0107_
*134 _0108_
*135 _0109_
*136 _0110_
*137 _0111_
*138 _0112_
*139 _0113_
*140 _0114_
*141 _0115_
*142 _0116_
*143 _0117_
*144 _0118_
*145 _0119_
*146 _0120_
*147 _0121_
*148 _0122_
*149 _0123_
*150 _0124_
*151 _0125_
*152 _0126_
*153 _0127_
*154 _0128_
*155 _0129_
*156 _0130_
*157 _0131_
*158 _0132_
*159 _0133_
*160 _0134_
*161 _0135_
*162 _0136_
*163 _0137_
*164 _0138_
*165 _0139_
*166 _0140_
*167 _0141_
*168 _0142_
*169 _0143_
*170 _0144_
*171 _0145_
*172 _0146_
*173 _0147_
*174 _0148_
*175 _0149_
*176 _0150_
*177 _0151_
*178 _0152_
*179 _0153_
*180 _0154_
*181 _0155_
*182 _0156_
*183 _0157_
*184 _0158_
*185 _0159_
*186 _0160_
*187 _0161_
*188 _0162_
*189 _0163_
*190 _0164_
*191 _0165_
*192 _0166_
*193 _0167_
*194 _0168_
*195 _0169_
*196 _0170_
*197 _0171_
*198 _0172_
*199 _0173_
*200 _0174_
*201 _0175_
*202 _0176_
*203 _0177_
*204 _0178_
*205 _0179_
*206 _0180_
*207 _0181_
*208 _0182_
*209 _0183_
*210 _0184_
*211 _0185_
*212 _0186_
*213 _0187_
*214 _0188_
*215 _0189_
*216 _0190_
*217 _0191_
*218 _0192_
*219 _0193_
*220 _0194_
*221 _0195_
*222 _0196_
*223 _0197_
*224 _0198_
*225 _0199_
*226 _0200_
*227 _0201_
*228 _0202_
*229 _0203_
*230 _0204_
*231 _0205_
*232 _0206_
*233 _0207_
*234 _0208_
*235 _0209_
*236 _0210_
*237 _0211_
*238 _0212_
*239 _0213_
*240 _0214_
*241 _0215_
*242 _0216_
*243 _0217_
*244 _0218_
*245 _0219_
*246 _0220_
*247 _0221_
*248 _0222_
*249 _0223_
*250 _0224_
*251 _0225_
*252 _0226_
*253 _0227_
*254 _0228_
*255 _0229_
*256 _0230_
*257 _0231_
*258 _0232_
*259 _0233_
*260 _0234_
*261 _0235_
*262 _0236_
*263 _0237_
*264 _0238_
*265 _0239_
*266 _0240_
*267 _0241_
*268 _0242_
*269 _0243_
*270 _0244_
*271 _0245_
*272 _0246_
*273 _0247_
*274 _0248_
*275 _0249_
*276 _0250_
*277 _0251_
*278 _0252_
*279 _0253_
*280 _0254_
*281 _0255_
*282 _0256_
*283 _0257_
*284 _0258_
*285 _0259_
*286 _0260_
*287 _0261_
*288 _0262_
*289 _0263_
*290 _0264_
*291 _0265_
*292 _0266_
*293 _0267_
*294 _0268_
*295 _0269_
*296 _0270_
*297 _0271_
*298 _0272_
*299 _0273_
*300 _0274_
*301 _0275_
*302 _0276_
*303 _0277_
*304 _0278_
*305 _0279_
*306 _0280_
*307 _0281_
*308 _0282_
*309 _0283_
*310 _0284_
*311 _0285_
*312 _0286_
*313 _0287_
*314 _0288_
*315 _0289_
*316 _0290_
*317 _0291_
*318 _0292_
*319 _0293_
*320 _0294_
*321 _0295_
*322 _0296_
*323 _0297_
*324 _0298_
*325 _0299_
*326 _0300_
*327 _0301_
*328 _0302_
*329 _0303_
*330 _0304_
*331 _0305_
*332 _0306_
*333 _0307_
*334 _0308_
*335 _0309_
*336 _0310_
*337 _0311_
*338 _0312_
*339 _0313_
*340 _0314_
*341 _0315_
*342 _0316_
*343 _0317_
*344 _0318_
*345 _0319_
*346 _0320_
*347 _0321_
*348 _0322_
*349 _0323_
*350 _0324_
*351 _0325_
*352 _0326_
*353 _0327_
*354 _0328_
*355 _0329_
*356 _0330_
*357 _0331_
*358 _0332_
*359 _0333_
*360 _0334_
*361 _0335_
*362 _0336_
*363 _0337_
*364 _0338_
*365 _0339_
*366 _0340_
*367 _0341_
*368 _0342_
*369 _0343_
*370 _0344_
*371 _0345_
*372 _0346_
*373 _0347_
*374 _0348_
*375 _0349_
*376 _0350_
*377 _0351_
*378 _0352_
*379 _0353_
*380 _0354_
*381 _0355_
*382 _0356_
*383 _0357_
*384 _0358_
*385 _0359_
*386 _0360_
*387 _0361_
*388 _0362_
*389 _0363_
*390 _0364_
*391 _0365_
*392 _0366_
*393 _0367_
*394 _0368_
*395 _0369_
*396 _0370_
*397 _0371_
*398 _0372_
*399 _0373_
*400 _0374_
*401 _0375_
*402 _0376_
*403 _0377_
*404 _0378_
*405 _0379_
*406 _0380_
*407 _0381_
*408 _0382_
*409 _0383_
*410 _0384_
*411 _0385_
*412 _0386_
*413 _0387_
*414 _0388_
*415 _0389_
*416 _0390_
*417 _0391_
*418 _0392_
*419 _0393_
*420 _0394_
*421 _0395_
*422 _0396_
*423 _0397_
*424 _0398_
*425 _0399_
*426 _0400_
*427 _0401_
*428 _0402_
*429 _0403_
*430 _0404_
*431 _0405_
*432 _0406_
*433 _0407_
*434 _0408_
*435 _0409_
*436 _0410_
*437 _0411_
*438 _0412_
*439 _0413_
*440 _0414_
*441 _0415_
*442 _0416_
*443 _0417_
*444 _0418_
*445 _0419_
*446 _0420_
*447 _0421_
*448 _0422_
*449 _0423_
*450 _0424_
*451 _0425_
*452 _0426_
*453 _0427_
*454 _0428_
*455 _0429_
*456 _0430_
*457 _0431_
*458 _0432_
*459 _0433_
*460 _0434_
*461 _0435_
*462 _0436_
*463 _0437_
*464 _0438_
*465 _0439_
*466 _0440_
*467 _0441_
*468 _0442_
*469 _0443_
*470 _0444_
*471 _0445_
*472 _0446_
*473 _0447_
*474 _0448_
*475 _0449_
*476 _0450_
*477 _0451_
*478 _0452_
*479 _0453_
*480 _0454_
*481 _0455_
*482 _0456_
*483 _0457_
*484 _0458_
*485 _0459_
*486 _0460_
*487 _0461_
*488 _0462_
*489 _0463_
*490 _0464_
*491 _0465_
*492 _0466_
*493 _0467_
*494 _0468_
*495 _0469_
*496 _0470_
*497 _0471_
*498 _0472_
*499 _0473_
*500 _0474_
*501 _0475_
*502 _0476_
*503 _0477_
*504 _0478_
*505 _0479_
*506 clknet_0_clk
*507 clknet_4_0_0_clk
*508 clknet_4_10_0_clk
*509 clknet_4_11_0_clk
*510 clknet_4_12_0_clk
*511 clknet_4_13_0_clk
*512 clknet_4_14_0_clk
*513 clknet_4_15_0_clk
*514 clknet_4_1_0_clk
*515 clknet_4_2_0_clk
*516 clknet_4_3_0_clk
*517 clknet_4_4_0_clk
*518 clknet_4_5_0_clk
*519 clknet_4_6_0_clk
*520 clknet_4_7_0_clk
*521 clknet_4_8_0_clk
*522 clknet_4_9_0_clk
*523 net1
*524 net10
*525 net100
*526 net101
*527 net102
*528 net103
*529 net104
*530 net105
*531 net106
*532 net107
*533 net108
*534 net109
*535 net11
*536 net110
*537 net111
*538 net112
*539 net113
*540 net114
*541 net115
*542 net116
*543 net117
*544 net118
*545 net119
*546 net12
*547 net120
*548 net121
*549 net122
*550 net123
*551 net124
*552 net125
*553 net126
*554 net127
*555 net128
*556 net129
*557 net13
*558 net130
*559 net131
*560 net132
*561 net133
*562 net134
*563 net135
*564 net136
*565 net137
*566 net138
*567 net139
*568 net14
*569 net140
*570 net141
*571 net142
*572 net143
*573 net144
*574 net145
*575 net146
*576 net147
*577 net148
*578 net149
*579 net15
*580 net150
*581 net151
*582 net152
*583 net153
*584 net154
*585 net155
*586 net156
*587 net157
*588 net158
*589 net159
*590 net16
*591 net160
*592 net161
*593 net162
*594 net163
*595 net164
*596 net165
*597 net166
*598 net167
*599 net168
*600 net169
*601 net17
*602 net170
*603 net171
*604 net172
*605 net173
*606 net18
*607 net19
*608 net2
*609 net20
*610 net21
*611 net22
*612 net23
*613 net24
*614 net25
*615 net26
*616 net27
*617 net28
*618 net29
*619 net3
*620 net30
*621 net31
*622 net32
*623 net33
*624 net34
*625 net35
*626 net36
*627 net37
*628 net38
*629 net39
*630 net4
*631 net40
*632 net41
*633 net42
*634 net43
*635 net44
*636 net45
*637 net46
*638 net47
*639 net48
*640 net49
*641 net5
*642 net50
*643 net51
*644 net52
*645 net53
*646 net54
*647 net55
*648 net56
*649 net57
*650 net58
*651 net59
*652 net6
*653 net60
*654 net61
*655 net62
*656 net63
*657 net64
*658 net65
*659 net66
*660 net67
*661 net68
*662 net69
*663 net7
*664 net70
*665 net71
*666 net72
*667 net73
*668 net74
*669 net75
*670 net76
*671 net77
*672 net78
*673 net79
*674 net8
*675 net80
*676 net81
*677 net82
*678 net83
*679 net84
*680 net85
*681 net86
*682 net87
*683 net88
*684 net89
*685 net9
*686 net90
*687 net91
*688 net92
*689 net93
*690 net94
*691 net95
*692 net96
*693 net97
*694 net98
*695 net99
*696 stack\[0\]\[0\]
*697 stack\[0\]\[1\]
*698 stack\[0\]\[2\]
*699 stack\[0\]\[3\]
*700 stack\[0\]\[4\]
*701 stack\[0\]\[5\]
*702 stack\[0\]\[6\]
*703 stack\[0\]\[7\]
*704 stack\[10\]\[0\]
*705 stack\[10\]\[1\]
*706 stack\[10\]\[2\]
*707 stack\[10\]\[3\]
*708 stack\[10\]\[4\]
*709 stack\[10\]\[5\]
*710 stack\[10\]\[6\]
*711 stack\[10\]\[7\]
*712 stack\[11\]\[0\]
*713 stack\[11\]\[1\]
*714 stack\[11\]\[2\]
*715 stack\[11\]\[3\]
*716 stack\[11\]\[4\]
*717 stack\[11\]\[5\]
*718 stack\[11\]\[6\]
*719 stack\[11\]\[7\]
*720 stack\[12\]\[0\]
*721 stack\[12\]\[1\]
*722 stack\[12\]\[2\]
*723 stack\[12\]\[3\]
*724 stack\[12\]\[4\]
*725 stack\[12\]\[5\]
*726 stack\[12\]\[6\]
*727 stack\[12\]\[7\]
*728 stack\[13\]\[0\]
*729 stack\[13\]\[1\]
*730 stack\[13\]\[2\]
*731 stack\[13\]\[3\]
*732 stack\[13\]\[4\]
*733 stack\[13\]\[5\]
*734 stack\[13\]\[6\]
*735 stack\[13\]\[7\]
*736 stack\[14\]\[0\]
*737 stack\[14\]\[1\]
*738 stack\[14\]\[2\]
*739 stack\[14\]\[3\]
*740 stack\[14\]\[4\]
*741 stack\[14\]\[5\]
*742 stack\[14\]\[6\]
*743 stack\[14\]\[7\]
*744 stack\[15\]\[0\]
*745 stack\[15\]\[1\]
*746 stack\[15\]\[2\]
*747 stack\[15\]\[3\]
*748 stack\[15\]\[4\]
*749 stack\[15\]\[5\]
*750 stack\[15\]\[6\]
*751 stack\[15\]\[7\]
*752 stack\[1\]\[0\]
*753 stack\[1\]\[1\]
*754 stack\[1\]\[2\]
*755 stack\[1\]\[3\]
*756 stack\[1\]\[4\]
*757 stack\[1\]\[5\]
*758 stack\[1\]\[6\]
*759 stack\[1\]\[7\]
*760 stack\[2\]\[0\]
*761 stack\[2\]\[1\]
*762 stack\[2\]\[2\]
*763 stack\[2\]\[3\]
*764 stack\[2\]\[4\]
*765 stack\[2\]\[5\]
*766 stack\[2\]\[6\]
*767 stack\[2\]\[7\]
*768 stack\[3\]\[0\]
*769 stack\[3\]\[1\]
*770 stack\[3\]\[2\]
*771 stack\[3\]\[3\]
*772 stack\[3\]\[4\]
*773 stack\[3\]\[5\]
*774 stack\[3\]\[6\]
*775 stack\[3\]\[7\]
*776 stack\[4\]\[0\]
*777 stack\[4\]\[1\]
*778 stack\[4\]\[2\]
*779 stack\[4\]\[3\]
*780 stack\[4\]\[4\]
*781 stack\[4\]\[5\]
*782 stack\[4\]\[6\]
*783 stack\[4\]\[7\]
*784 stack\[5\]\[0\]
*785 stack\[5\]\[1\]
*786 stack\[5\]\[2\]
*787 stack\[5\]\[3\]
*788 stack\[5\]\[4\]
*789 stack\[5\]\[5\]
*790 stack\[5\]\[6\]
*791 stack\[5\]\[7\]
*792 stack\[6\]\[0\]
*793 stack\[6\]\[1\]
*794 stack\[6\]\[2\]
*795 stack\[6\]\[3\]
*796 stack\[6\]\[4\]
*797 stack\[6\]\[5\]
*798 stack\[6\]\[6\]
*799 stack\[6\]\[7\]
*800 stack\[7\]\[0\]
*801 stack\[7\]\[1\]
*802 stack\[7\]\[2\]
*803 stack\[7\]\[3\]
*804 stack\[7\]\[4\]
*805 stack\[7\]\[5\]
*806 stack\[7\]\[6\]
*807 stack\[7\]\[7\]
*808 stack\[8\]\[0\]
*809 stack\[8\]\[1\]
*810 stack\[8\]\[2\]
*811 stack\[8\]\[3\]
*812 stack\[8\]\[4\]
*813 stack\[8\]\[5\]
*814 stack\[8\]\[6\]
*815 stack\[8\]\[7\]
*816 stack\[9\]\[0\]
*817 stack\[9\]\[1\]
*818 stack\[9\]\[2\]
*819 stack\[9\]\[3\]
*820 stack\[9\]\[4\]
*821 stack\[9\]\[5\]
*822 stack\[9\]\[6\]
*823 stack\[9\]\[7\]
*824 top\[0\]
*825 top\[1\]
*826 top\[2\]
*827 top\[3\]
*828 top\[4\]
*829 FILLER_0_0_105
*830 FILLER_0_0_113
*831 FILLER_0_0_125
*832 FILLER_0_0_137
*833 FILLER_0_0_141
*834 FILLER_0_0_153
*835 FILLER_0_0_165
*836 FILLER_0_0_175
*837 FILLER_0_0_187
*838 FILLER_0_0_195
*839 FILLER_0_0_197
*840 FILLER_0_0_209
*841 FILLER_0_0_21
*842 FILLER_0_0_221
*843 FILLER_0_0_225
*844 FILLER_0_0_233
*845 FILLER_0_0_240
*846 FILLER_0_0_253
*847 FILLER_0_0_265
*848 FILLER_0_0_27
*849 FILLER_0_0_277
*850 FILLER_0_0_281
*851 FILLER_0_0_29
*852 FILLER_0_0_293
*853 FILLER_0_0_303
*854 FILLER_0_0_307
*855 FILLER_0_0_309
*856 FILLER_0_0_41
*857 FILLER_0_0_49
*858 FILLER_0_0_55
*859 FILLER_0_0_57
*860 FILLER_0_0_69
*861 FILLER_0_0_81
*862 FILLER_0_0_85
*863 FILLER_0_0_9
*864 FILLER_0_0_97
*865 FILLER_0_10_109
*866 FILLER_0_10_129
*867 FILLER_0_10_137
*868 FILLER_0_10_141
*869 FILLER_0_10_15
*870 FILLER_0_10_188
*871 FILLER_0_10_197
*872 FILLER_0_10_20
*873 FILLER_0_10_209
*874 FILLER_0_10_221
*875 FILLER_0_10_233
*876 FILLER_0_10_245
*877 FILLER_0_10_251
*878 FILLER_0_10_253
*879 FILLER_0_10_265
*880 FILLER_0_10_277
*881 FILLER_0_10_289
*882 FILLER_0_10_29
*883 FILLER_0_10_3
*884 FILLER_0_10_301
*885 FILLER_0_10_307
*886 FILLER_0_10_309
*887 FILLER_0_10_41
*888 FILLER_0_10_53
*889 FILLER_0_10_61
*890 FILLER_0_10_68
*891 FILLER_0_10_80
*892 FILLER_0_10_85
*893 FILLER_0_10_97
*894 FILLER_0_11_106
*895 FILLER_0_11_11
*896 FILLER_0_11_113
*897 FILLER_0_11_163
*898 FILLER_0_11_185
*899 FILLER_0_11_196
*900 FILLER_0_11_218
*901 FILLER_0_11_225
*902 FILLER_0_11_252
*903 FILLER_0_11_271
*904 FILLER_0_11_279
*905 FILLER_0_11_281
*906 FILLER_0_11_293
*907 FILLER_0_11_3
*908 FILLER_0_11_305
*909 FILLER_0_11_317
*910 FILLER_0_11_46
*911 FILLER_0_11_54
*912 FILLER_0_12_139
*913 FILLER_0_12_141
*914 FILLER_0_12_153
*915 FILLER_0_12_180
*916 FILLER_0_12_25
*917 FILLER_0_12_275
*918 FILLER_0_12_287
*919 FILLER_0_12_29
*920 FILLER_0_12_299
*921 FILLER_0_12_3
*922 FILLER_0_12_307
*923 FILLER_0_12_309
*924 FILLER_0_12_321
*925 FILLER_0_12_40
*926 FILLER_0_12_46
*927 FILLER_0_12_78
*928 FILLER_0_13_11
*929 FILLER_0_13_126
*930 FILLER_0_13_138
*931 FILLER_0_13_150
*932 FILLER_0_13_158
*933 FILLER_0_13_164
*934 FILLER_0_13_169
*935 FILLER_0_13_179
*936 FILLER_0_13_221
*937 FILLER_0_13_225
*938 FILLER_0_13_244
*939 FILLER_0_13_276
*940 FILLER_0_13_281
*941 FILLER_0_13_293
*942 FILLER_0_13_3
*943 FILLER_0_13_305
*944 FILLER_0_13_317
*945 FILLER_0_13_33
*946 FILLER_0_13_45
*947 FILLER_0_13_53
*948 FILLER_0_13_57
*949 FILLER_0_13_76
*950 FILLER_0_13_98
*951 FILLER_0_14_103
*952 FILLER_0_14_115
*953 FILLER_0_14_127
*954 FILLER_0_14_139
*955 FILLER_0_14_141
*956 FILLER_0_14_15
*957 FILLER_0_14_153
*958 FILLER_0_14_165
*959 FILLER_0_14_185
*960 FILLER_0_14_193
*961 FILLER_0_14_197
*962 FILLER_0_14_216
*963 FILLER_0_14_228
*964 FILLER_0_14_236
*965 FILLER_0_14_244
*966 FILLER_0_14_253
*967 FILLER_0_14_27
*968 FILLER_0_14_272
*969 FILLER_0_14_284
*970 FILLER_0_14_296
*971 FILLER_0_14_3
*972 FILLER_0_14_309
*973 FILLER_0_14_321
*974 FILLER_0_14_38
*975 FILLER_0_14_47
*976 FILLER_0_14_59
*977 FILLER_0_14_65
*978 FILLER_0_14_74
*979 FILLER_0_14_82
*980 FILLER_0_14_85
*981 FILLER_0_14_93
*982 FILLER_0_15_103
*983 FILLER_0_15_111
*984 FILLER_0_15_113
*985 FILLER_0_15_125
*986 FILLER_0_15_137
*987 FILLER_0_15_149
*988 FILLER_0_15_15
*989 FILLER_0_15_161
*990 FILLER_0_15_167
*991 FILLER_0_15_169
*992 FILLER_0_15_181
*993 FILLER_0_15_19
*994 FILLER_0_15_193
*995 FILLER_0_15_205
*996 FILLER_0_15_217
*997 FILLER_0_15_223
*998 FILLER_0_15_225
*999 FILLER_0_15_23
*1000 FILLER_0_15_237
*1001 FILLER_0_15_249
*1002 FILLER_0_15_258
*1003 FILLER_0_15_270
*1004 FILLER_0_15_278
*1005 FILLER_0_15_281
*1006 FILLER_0_15_293
*1007 FILLER_0_15_3
*1008 FILLER_0_15_305
*1009 FILLER_0_15_317
*1010 FILLER_0_15_49
*1011 FILLER_0_15_55
*1012 FILLER_0_15_57
*1013 FILLER_0_15_69
*1014 FILLER_0_15_81
*1015 FILLER_0_15_93
*1016 FILLER_0_16_11
*1017 FILLER_0_16_118
*1018 FILLER_0_16_144
*1019 FILLER_0_16_156
*1020 FILLER_0_16_160
*1021 FILLER_0_16_177
*1022 FILLER_0_16_189
*1023 FILLER_0_16_195
*1024 FILLER_0_16_208
*1025 FILLER_0_16_220
*1026 FILLER_0_16_224
*1027 FILLER_0_16_234
*1028 FILLER_0_16_246
*1029 FILLER_0_16_253
*1030 FILLER_0_16_265
*1031 FILLER_0_16_277
*1032 FILLER_0_16_285
*1033 FILLER_0_16_29
*1034 FILLER_0_16_297
*1035 FILLER_0_16_3
*1036 FILLER_0_16_305
*1037 FILLER_0_16_309
*1038 FILLER_0_16_321
*1039 FILLER_0_16_39
*1040 FILLER_0_16_50
*1041 FILLER_0_16_62
*1042 FILLER_0_16_74
*1043 FILLER_0_16_82
*1044 FILLER_0_17_113
*1045 FILLER_0_17_117
*1046 FILLER_0_17_159
*1047 FILLER_0_17_192
*1048 FILLER_0_17_21
*1049 FILLER_0_17_210
*1050 FILLER_0_17_218
*1051 FILLER_0_17_244
*1052 FILLER_0_17_256
*1053 FILLER_0_17_305
*1054 FILLER_0_17_317
*1055 FILLER_0_17_32
*1056 FILLER_0_17_44
*1057 FILLER_0_17_51
*1058 FILLER_0_17_55
*1059 FILLER_0_17_57
*1060 FILLER_0_17_69
*1061 FILLER_0_17_9
*1062 FILLER_0_18_101
*1063 FILLER_0_18_116
*1064 FILLER_0_18_126
*1065 FILLER_0_18_139
*1066 FILLER_0_18_141
*1067 FILLER_0_18_15
*1068 FILLER_0_18_153
*1069 FILLER_0_18_165
*1070 FILLER_0_18_186
*1071 FILLER_0_18_219
*1072 FILLER_0_18_269
*1073 FILLER_0_18_27
*1074 FILLER_0_18_281
*1075 FILLER_0_18_29
*1076 FILLER_0_18_3
*1077 FILLER_0_18_305
*1078 FILLER_0_18_309
*1079 FILLER_0_18_321
*1080 FILLER_0_18_41
*1081 FILLER_0_18_76
*1082 FILLER_0_18_80
*1083 FILLER_0_19_113
*1084 FILLER_0_19_125
*1085 FILLER_0_19_129
*1086 FILLER_0_19_138
*1087 FILLER_0_19_150
*1088 FILLER_0_19_162
*1089 FILLER_0_19_178
*1090 FILLER_0_19_187
*1091 FILLER_0_19_25
*1092 FILLER_0_19_281
*1093 FILLER_0_19_285
*1094 FILLER_0_19_294
*1095 FILLER_0_19_3
*1096 FILLER_0_19_300
*1097 FILLER_0_19_312
*1098 FILLER_0_19_324
*1099 FILLER_0_19_34
*1100 FILLER_0_19_66
*1101 FILLER_0_19_72
*1102 FILLER_0_19_84
*1103 FILLER_0_19_95
*1104 FILLER_0_1_105
*1105 FILLER_0_1_111
*1106 FILLER_0_1_113
*1107 FILLER_0_1_125
*1108 FILLER_0_1_137
*1109 FILLER_0_1_149
*1110 FILLER_0_1_15
*1111 FILLER_0_1_161
*1112 FILLER_0_1_167
*1113 FILLER_0_1_169
*1114 FILLER_0_1_181
*1115 FILLER_0_1_193
*1116 FILLER_0_1_205
*1117 FILLER_0_1_217
*1118 FILLER_0_1_223
*1119 FILLER_0_1_225
*1120 FILLER_0_1_237
*1121 FILLER_0_1_249
*1122 FILLER_0_1_261
*1123 FILLER_0_1_27
*1124 FILLER_0_1_273
*1125 FILLER_0_1_279
*1126 FILLER_0_1_281
*1127 FILLER_0_1_293
*1128 FILLER_0_1_3
*1129 FILLER_0_1_305
*1130 FILLER_0_1_317
*1131 FILLER_0_1_39
*1132 FILLER_0_1_51
*1133 FILLER_0_1_55
*1134 FILLER_0_1_57
*1135 FILLER_0_1_69
*1136 FILLER_0_1_81
*1137 FILLER_0_1_93
*1138 FILLER_0_20_111
*1139 FILLER_0_20_123
*1140 FILLER_0_20_135
*1141 FILLER_0_20_139
*1142 FILLER_0_20_141
*1143 FILLER_0_20_158
*1144 FILLER_0_20_170
*1145 FILLER_0_20_182
*1146 FILLER_0_20_194
*1147 FILLER_0_20_197
*1148 FILLER_0_20_209
*1149 FILLER_0_20_221
*1150 FILLER_0_20_227
*1151 FILLER_0_20_245
*1152 FILLER_0_20_25
*1153 FILLER_0_20_251
*1154 FILLER_0_20_270
*1155 FILLER_0_20_282
*1156 FILLER_0_20_294
*1157 FILLER_0_20_3
*1158 FILLER_0_20_306
*1159 FILLER_0_20_309
*1160 FILLER_0_20_317
*1161 FILLER_0_20_49
*1162 FILLER_0_20_67
*1163 FILLER_0_20_94
*1164 FILLER_0_21_107
*1165 FILLER_0_21_11
*1166 FILLER_0_21_111
*1167 FILLER_0_21_113
*1168 FILLER_0_21_124
*1169 FILLER_0_21_136
*1170 FILLER_0_21_140
*1171 FILLER_0_21_169
*1172 FILLER_0_21_184
*1173 FILLER_0_21_196
*1174 FILLER_0_21_208
*1175 FILLER_0_21_220
*1176 FILLER_0_21_225
*1177 FILLER_0_21_237
*1178 FILLER_0_21_249
*1179 FILLER_0_21_258
*1180 FILLER_0_21_270
*1181 FILLER_0_21_278
*1182 FILLER_0_21_281
*1183 FILLER_0_21_293
*1184 FILLER_0_21_3
*1185 FILLER_0_21_305
*1186 FILLER_0_21_317
*1187 FILLER_0_21_33
*1188 FILLER_0_21_45
*1189 FILLER_0_21_53
*1190 FILLER_0_21_57
*1191 FILLER_0_21_69
*1192 FILLER_0_21_81
*1193 FILLER_0_21_86
*1194 FILLER_0_21_95
*1195 FILLER_0_22_109
*1196 FILLER_0_22_113
*1197 FILLER_0_22_141
*1198 FILLER_0_22_15
*1199 FILLER_0_22_158
*1200 FILLER_0_22_170
*1201 FILLER_0_22_192
*1202 FILLER_0_22_197
*1203 FILLER_0_22_209
*1204 FILLER_0_22_221
*1205 FILLER_0_22_233
*1206 FILLER_0_22_245
*1207 FILLER_0_22_251
*1208 FILLER_0_22_253
*1209 FILLER_0_22_265
*1210 FILLER_0_22_27
*1211 FILLER_0_22_273
*1212 FILLER_0_22_29
*1213 FILLER_0_22_290
*1214 FILLER_0_22_3
*1215 FILLER_0_22_302
*1216 FILLER_0_22_309
*1217 FILLER_0_22_321
*1218 FILLER_0_22_41
*1219 FILLER_0_22_53
*1220 FILLER_0_22_65
*1221 FILLER_0_22_77
*1222 FILLER_0_22_83
*1223 FILLER_0_22_85
*1224 FILLER_0_22_97
*1225 FILLER_0_23_107
*1226 FILLER_0_23_111
*1227 FILLER_0_23_113
*1228 FILLER_0_23_125
*1229 FILLER_0_23_144
*1230 FILLER_0_23_15
*1231 FILLER_0_23_169
*1232 FILLER_0_23_177
*1233 FILLER_0_23_181
*1234 FILLER_0_23_187
*1235 FILLER_0_23_196
*1236 FILLER_0_23_208
*1237 FILLER_0_23_220
*1238 FILLER_0_23_228
*1239 FILLER_0_23_240
*1240 FILLER_0_23_252
*1241 FILLER_0_23_264
*1242 FILLER_0_23_27
*1243 FILLER_0_23_284
*1244 FILLER_0_23_3
*1245 FILLER_0_23_309
*1246 FILLER_0_23_321
*1247 FILLER_0_23_39
*1248 FILLER_0_23_54
*1249 FILLER_0_23_82
*1250 FILLER_0_23_90
*1251 FILLER_0_23_95
*1252 FILLER_0_24_137
*1253 FILLER_0_24_149
*1254 FILLER_0_24_153
*1255 FILLER_0_24_162
*1256 FILLER_0_24_174
*1257 FILLER_0_24_193
*1258 FILLER_0_24_202
*1259 FILLER_0_24_214
*1260 FILLER_0_24_239
*1261 FILLER_0_24_251
*1262 FILLER_0_24_253
*1263 FILLER_0_24_26
*1264 FILLER_0_24_265
*1265 FILLER_0_24_29
*1266 FILLER_0_24_3
*1267 FILLER_0_24_306
*1268 FILLER_0_24_309
*1269 FILLER_0_24_321
*1270 FILLER_0_24_41
*1271 FILLER_0_24_79
*1272 FILLER_0_24_83
*1273 FILLER_0_24_85
*1274 FILLER_0_24_9
*1275 FILLER_0_25_108
*1276 FILLER_0_25_113
*1277 FILLER_0_25_117
*1278 FILLER_0_25_121
*1279 FILLER_0_25_133
*1280 FILLER_0_25_145
*1281 FILLER_0_25_157
*1282 FILLER_0_25_165
*1283 FILLER_0_25_169
*1284 FILLER_0_25_181
*1285 FILLER_0_25_210
*1286 FILLER_0_25_214
*1287 FILLER_0_25_225
*1288 FILLER_0_25_237
*1289 FILLER_0_25_249
*1290 FILLER_0_25_257
*1291 FILLER_0_25_269
*1292 FILLER_0_25_279
*1293 FILLER_0_25_281
*1294 FILLER_0_25_293
*1295 FILLER_0_25_3
*1296 FILLER_0_25_305
*1297 FILLER_0_25_317
*1298 FILLER_0_25_49
*1299 FILLER_0_25_55
*1300 FILLER_0_25_74
*1301 FILLER_0_26_11
*1302 FILLER_0_26_118
*1303 FILLER_0_26_130
*1304 FILLER_0_26_138
*1305 FILLER_0_26_148
*1306 FILLER_0_26_179
*1307 FILLER_0_26_187
*1308 FILLER_0_26_195
*1309 FILLER_0_26_205
*1310 FILLER_0_26_216
*1311 FILLER_0_26_228
*1312 FILLER_0_26_234
*1313 FILLER_0_26_25
*1314 FILLER_0_26_260
*1315 FILLER_0_26_268
*1316 FILLER_0_26_289
*1317 FILLER_0_26_3
*1318 FILLER_0_26_301
*1319 FILLER_0_26_307
*1320 FILLER_0_26_309
*1321 FILLER_0_26_321
*1322 FILLER_0_26_37
*1323 FILLER_0_26_49
*1324 FILLER_0_26_61
*1325 FILLER_0_26_73
*1326 FILLER_0_26_81
*1327 FILLER_0_26_85
*1328 FILLER_0_26_90
*1329 FILLER_0_27_108
*1330 FILLER_0_27_118
*1331 FILLER_0_27_126
*1332 FILLER_0_27_146
*1333 FILLER_0_27_15
*1334 FILLER_0_27_190
*1335 FILLER_0_27_201
*1336 FILLER_0_27_213
*1337 FILLER_0_27_221
*1338 FILLER_0_27_234
*1339 FILLER_0_27_266
*1340 FILLER_0_27_27
*1341 FILLER_0_27_278
*1342 FILLER_0_27_284
*1343 FILLER_0_27_296
*1344 FILLER_0_27_3
*1345 FILLER_0_27_308
*1346 FILLER_0_27_320
*1347 FILLER_0_27_324
*1348 FILLER_0_27_39
*1349 FILLER_0_27_47
*1350 FILLER_0_27_53
*1351 FILLER_0_27_82
*1352 FILLER_0_28_116
*1353 FILLER_0_28_139
*1354 FILLER_0_28_150
*1355 FILLER_0_28_177
*1356 FILLER_0_28_18
*1357 FILLER_0_28_213
*1358 FILLER_0_28_238
*1359 FILLER_0_28_249
*1360 FILLER_0_28_253
*1361 FILLER_0_28_26
*1362 FILLER_0_28_268
*1363 FILLER_0_28_29
*1364 FILLER_0_28_291
*1365 FILLER_0_28_3
*1366 FILLER_0_28_303
*1367 FILLER_0_28_307
*1368 FILLER_0_28_309
*1369 FILLER_0_28_321
*1370 FILLER_0_28_41
*1371 FILLER_0_28_79
*1372 FILLER_0_28_83
*1373 FILLER_0_28_85
*1374 FILLER_0_28_98
*1375 FILLER_0_29_107
*1376 FILLER_0_29_111
*1377 FILLER_0_29_113
*1378 FILLER_0_29_121
*1379 FILLER_0_29_139
*1380 FILLER_0_29_187
*1381 FILLER_0_29_195
*1382 FILLER_0_29_200
*1383 FILLER_0_29_212
*1384 FILLER_0_29_218
*1385 FILLER_0_29_222
*1386 FILLER_0_29_225
*1387 FILLER_0_29_237
*1388 FILLER_0_29_244
*1389 FILLER_0_29_254
*1390 FILLER_0_29_265
*1391 FILLER_0_29_277
*1392 FILLER_0_29_281
*1393 FILLER_0_29_285
*1394 FILLER_0_29_297
*1395 FILLER_0_29_309
*1396 FILLER_0_29_321
*1397 FILLER_0_29_43
*1398 FILLER_0_29_51
*1399 FILLER_0_29_55
*1400 FILLER_0_29_7
*1401 FILLER_0_29_80
*1402 FILLER_0_2_114
*1403 FILLER_0_2_15
*1404 FILLER_0_2_152
*1405 FILLER_0_2_158
*1406 FILLER_0_2_175
*1407 FILLER_0_2_200
*1408 FILLER_0_2_212
*1409 FILLER_0_2_224
*1410 FILLER_0_2_236
*1411 FILLER_0_2_248
*1412 FILLER_0_2_253
*1413 FILLER_0_2_265
*1414 FILLER_0_2_27
*1415 FILLER_0_2_277
*1416 FILLER_0_2_286
*1417 FILLER_0_2_29
*1418 FILLER_0_2_298
*1419 FILLER_0_2_3
*1420 FILLER_0_2_306
*1421 FILLER_0_2_309
*1422 FILLER_0_2_321
*1423 FILLER_0_2_41
*1424 FILLER_0_2_53
*1425 FILLER_0_2_65
*1426 FILLER_0_2_77
*1427 FILLER_0_2_83
*1428 FILLER_0_2_85
*1429 FILLER_0_2_89
*1430 FILLER_0_30_102
*1431 FILLER_0_30_11
*1432 FILLER_0_30_114
*1433 FILLER_0_30_129
*1434 FILLER_0_30_137
*1435 FILLER_0_30_141
*1436 FILLER_0_30_150
*1437 FILLER_0_30_158
*1438 FILLER_0_30_187
*1439 FILLER_0_30_195
*1440 FILLER_0_30_197
*1441 FILLER_0_30_209
*1442 FILLER_0_30_220
*1443 FILLER_0_30_228
*1444 FILLER_0_30_240
*1445 FILLER_0_30_264
*1446 FILLER_0_30_276
*1447 FILLER_0_30_288
*1448 FILLER_0_30_3
*1449 FILLER_0_30_300
*1450 FILLER_0_30_309
*1451 FILLER_0_30_321
*1452 FILLER_0_30_46
*1453 FILLER_0_30_58
*1454 FILLER_0_30_65
*1455 FILLER_0_30_77
*1456 FILLER_0_30_83
*1457 FILLER_0_30_85
*1458 FILLER_0_30_90
*1459 FILLER_0_31_105
*1460 FILLER_0_31_111
*1461 FILLER_0_31_113
*1462 FILLER_0_31_125
*1463 FILLER_0_31_137
*1464 FILLER_0_31_149
*1465 FILLER_0_31_15
*1466 FILLER_0_31_153
*1467 FILLER_0_31_183
*1468 FILLER_0_31_19
*1469 FILLER_0_31_195
*1470 FILLER_0_31_208
*1471 FILLER_0_31_223
*1472 FILLER_0_31_225
*1473 FILLER_0_31_237
*1474 FILLER_0_31_249
*1475 FILLER_0_31_255
*1476 FILLER_0_31_27
*1477 FILLER_0_31_281
*1478 FILLER_0_31_293
*1479 FILLER_0_31_3
*1480 FILLER_0_31_305
*1481 FILLER_0_31_317
*1482 FILLER_0_31_37
*1483 FILLER_0_31_49
*1484 FILLER_0_31_55
*1485 FILLER_0_31_57
*1486 FILLER_0_31_69
*1487 FILLER_0_31_81
*1488 FILLER_0_31_93
*1489 FILLER_0_32_101
*1490 FILLER_0_32_115
*1491 FILLER_0_32_121
*1492 FILLER_0_32_128
*1493 FILLER_0_32_141
*1494 FILLER_0_32_15
*1495 FILLER_0_32_153
*1496 FILLER_0_32_170
*1497 FILLER_0_32_182
*1498 FILLER_0_32_190
*1499 FILLER_0_32_203
*1500 FILLER_0_32_207
*1501 FILLER_0_32_233
*1502 FILLER_0_32_251
*1503 FILLER_0_32_257
*1504 FILLER_0_32_269
*1505 FILLER_0_32_27
*1506 FILLER_0_32_275
*1507 FILLER_0_32_279
*1508 FILLER_0_32_29
*1509 FILLER_0_32_291
*1510 FILLER_0_32_3
*1511 FILLER_0_32_303
*1512 FILLER_0_32_307
*1513 FILLER_0_32_309
*1514 FILLER_0_32_321
*1515 FILLER_0_32_41
*1516 FILLER_0_32_47
*1517 FILLER_0_32_51
*1518 FILLER_0_32_63
*1519 FILLER_0_32_75
*1520 FILLER_0_32_83
*1521 FILLER_0_32_85
*1522 FILLER_0_32_97
*1523 FILLER_0_33_110
*1524 FILLER_0_33_113
*1525 FILLER_0_33_146
*1526 FILLER_0_33_15
*1527 FILLER_0_33_154
*1528 FILLER_0_33_166
*1529 FILLER_0_33_169
*1530 FILLER_0_33_192
*1531 FILLER_0_33_204
*1532 FILLER_0_33_210
*1533 FILLER_0_33_225
*1534 FILLER_0_33_266
*1535 FILLER_0_33_27
*1536 FILLER_0_33_278
*1537 FILLER_0_33_281
*1538 FILLER_0_33_293
*1539 FILLER_0_33_3
*1540 FILLER_0_33_305
*1541 FILLER_0_33_317
*1542 FILLER_0_33_36
*1543 FILLER_0_33_66
*1544 FILLER_0_33_72
*1545 FILLER_0_33_76
*1546 FILLER_0_34_110
*1547 FILLER_0_34_127
*1548 FILLER_0_34_139
*1549 FILLER_0_34_149
*1550 FILLER_0_34_15
*1551 FILLER_0_34_192
*1552 FILLER_0_34_197
*1553 FILLER_0_34_204
*1554 FILLER_0_34_209
*1555 FILLER_0_34_232
*1556 FILLER_0_34_240
*1557 FILLER_0_34_244
*1558 FILLER_0_34_257
*1559 FILLER_0_34_269
*1560 FILLER_0_34_27
*1561 FILLER_0_34_281
*1562 FILLER_0_34_293
*1563 FILLER_0_34_3
*1564 FILLER_0_34_305
*1565 FILLER_0_34_309
*1566 FILLER_0_34_321
*1567 FILLER_0_34_54
*1568 FILLER_0_34_80
*1569 FILLER_0_34_85
*1570 FILLER_0_34_89
*1571 FILLER_0_35_108
*1572 FILLER_0_35_113
*1573 FILLER_0_35_140
*1574 FILLER_0_35_15
*1575 FILLER_0_35_152
*1576 FILLER_0_35_188
*1577 FILLER_0_35_200
*1578 FILLER_0_35_212
*1579 FILLER_0_35_231
*1580 FILLER_0_35_239
*1581 FILLER_0_35_256
*1582 FILLER_0_35_268
*1583 FILLER_0_35_27
*1584 FILLER_0_35_281
*1585 FILLER_0_35_293
*1586 FILLER_0_35_3
*1587 FILLER_0_35_305
*1588 FILLER_0_35_317
*1589 FILLER_0_35_39
*1590 FILLER_0_35_55
*1591 FILLER_0_35_64
*1592 FILLER_0_35_72
*1593 FILLER_0_36_100
*1594 FILLER_0_36_109
*1595 FILLER_0_36_121
*1596 FILLER_0_36_133
*1597 FILLER_0_36_139
*1598 FILLER_0_36_149
*1599 FILLER_0_36_15
*1600 FILLER_0_36_159
*1601 FILLER_0_36_184
*1602 FILLER_0_36_217
*1603 FILLER_0_36_229
*1604 FILLER_0_36_241
*1605 FILLER_0_36_245
*1606 FILLER_0_36_249
*1607 FILLER_0_36_257
*1608 FILLER_0_36_269
*1609 FILLER_0_36_27
*1610 FILLER_0_36_281
*1611 FILLER_0_36_29
*1612 FILLER_0_36_293
*1613 FILLER_0_36_3
*1614 FILLER_0_36_305
*1615 FILLER_0_36_309
*1616 FILLER_0_36_321
*1617 FILLER_0_36_41
*1618 FILLER_0_36_53
*1619 FILLER_0_36_65
*1620 FILLER_0_36_82
*1621 FILLER_0_36_85
*1622 FILLER_0_36_92
*1623 FILLER_0_37_100
*1624 FILLER_0_37_113
*1625 FILLER_0_37_125
*1626 FILLER_0_37_138
*1627 FILLER_0_37_15
*1628 FILLER_0_37_151
*1629 FILLER_0_37_163
*1630 FILLER_0_37_167
*1631 FILLER_0_37_169
*1632 FILLER_0_37_181
*1633 FILLER_0_37_193
*1634 FILLER_0_37_205
*1635 FILLER_0_37_217
*1636 FILLER_0_37_223
*1637 FILLER_0_37_225
*1638 FILLER_0_37_237
*1639 FILLER_0_37_245
*1640 FILLER_0_37_252
*1641 FILLER_0_37_264
*1642 FILLER_0_37_27
*1643 FILLER_0_37_276
*1644 FILLER_0_37_281
*1645 FILLER_0_37_293
*1646 FILLER_0_37_3
*1647 FILLER_0_37_305
*1648 FILLER_0_37_317
*1649 FILLER_0_37_49
*1650 FILLER_0_37_55
*1651 FILLER_0_37_57
*1652 FILLER_0_37_76
*1653 FILLER_0_37_88
*1654 FILLER_0_38_109
*1655 FILLER_0_38_113
*1656 FILLER_0_38_120
*1657 FILLER_0_38_149
*1658 FILLER_0_38_15
*1659 FILLER_0_38_160
*1660 FILLER_0_38_172
*1661 FILLER_0_38_184
*1662 FILLER_0_38_197
*1663 FILLER_0_38_209
*1664 FILLER_0_38_221
*1665 FILLER_0_38_232
*1666 FILLER_0_38_236
*1667 FILLER_0_38_240
*1668 FILLER_0_38_244
*1669 FILLER_0_38_253
*1670 FILLER_0_38_27
*1671 FILLER_0_38_270
*1672 FILLER_0_38_282
*1673 FILLER_0_38_29
*1674 FILLER_0_38_294
*1675 FILLER_0_38_3
*1676 FILLER_0_38_306
*1677 FILLER_0_38_309
*1678 FILLER_0_38_321
*1679 FILLER_0_38_33
*1680 FILLER_0_38_37
*1681 FILLER_0_38_65
*1682 FILLER_0_39_100
*1683 FILLER_0_39_113
*1684 FILLER_0_39_131
*1685 FILLER_0_39_135
*1686 FILLER_0_39_15
*1687 FILLER_0_39_167
*1688 FILLER_0_39_169
*1689 FILLER_0_39_180
*1690 FILLER_0_39_193
*1691 FILLER_0_39_205
*1692 FILLER_0_39_222
*1693 FILLER_0_39_248
*1694 FILLER_0_39_27
*1695 FILLER_0_39_279
*1696 FILLER_0_39_281
*1697 FILLER_0_39_293
*1698 FILLER_0_39_3